
a) 128 enteries 

4K
command: 
./sim-outorder.exe \
  -max:inst 500000000 \
  -redir:sim bzip2_128_4k.log \
  -tlb:itlb itlb:64:4096:2:l \
  -tlb:dtlb dtlb:64:4096:2:l \
  -tlb:lat 20 \
  /cygdrive/c/cygwin/Benchmark-SPEC2006-ALPHA/bin/bzip2.base.alpha \
  /cygdrive/c/cygwin/Benchmark-SPEC2006-ALPHA/input/bzip2/chicken.jpg
  
  output: bzip2_128_4k.log
  
8K
command:
 ./sim-outorder.exe \
  -max:inst 500000000 \
  -redir:sim bzip2_128_8k.log \
  -tlb:itlb itlb:64:8192:2:l \
  -tlb:dtlb dtlb:64:8192:2:l \
  -tlb:lat 20 \
  /cygdrive/c/cygwin/Benchmark-SPEC2006-ALPHA/bin/bzip2.base.alpha \
  /cygdrive/c/cygwin/Benchmark-SPEC2006-ALPHA/input/bzip2/chicken.jpg

  
16K
./sim-outorder.exe \
  -max:inst 500000000 \
  -redir:sim bzip2_128_16k.log \
  -tlb:itlb itlb:64:16384:2:l \
  -tlb:dtlb dtlb:64:16384:2:l \
  -tlb:lat 20 \
  /cygdrive/c/cygwin/Benchmark-SPEC2006-ALPHA/bin/bzip2.base.alpha \
  /cygdrive/c/cygwin/Benchmark-SPEC2006-ALPHA/input/bzip2/chicken.jpg

b) 256

4KB
